**Input deck for elastic simulation
*INCLUDE, INPUT=Solid/squareflap.msh
*INCLUDE, INPUT=Solid/bottomNodes.nam
*INCLUDE, INPUT=Solid/surfaceNodes.nam

**Add Boundary file
*BOUNDARY
Nfix1,1,3

**Constrain axis if required
*BOUNDARY
NALL,3,3

**Add material named EL with elastic properties
*MATERIAL,NAME=EL
*ELASTIC
250000.0,0.35

*SOLID SECTION, ELSET=EALL, MATERIAL=EL
*DENSITY
100

*STEP,NLGEOM, INC = 1000000000000
*DYNAMIC,DIRECT
5E-03,2000
*CLOAD
Nsurface,1,0.0
Nsurface,2,0.0
Nsurface,3,0.0

*NODE FILE
U
*EL FILE
S
*NODE PRINT, NSET=NALL
U
*EL PRINT,ELSET=EALL
S
*END STEP