**RAE822 file for optimization
*INCLUDE, INPUT=mesh.nam
*INCLUDE, INPUT=Nfix1.nam

**Add Boundary file
*BOUNDARY
Nfix1,1,3

**Add material named EL with elastic properties
*MATERIAL,NAME=EL
*ELASTIC
4e6,0.33

*NSET, NSET=DES
1
      
*DESIGNVARIABLES, TYPE=COORDINATE
DES

*SOLID SECTION, ELSET=EALL, MATERIAL=EL
*DENSITY
2700

*STEP
*STATIC
**Begin setup for static analysi
*CLOAD
*INCLUDE, INPUT=surfaceNodesopt.nam

***DLOAD
**EALL,GRAV,9.810, 0., 0., -1

*NODE FILE
 U
***EL FILE
** S, E
*END STEP


*STEP
*SENSITIVITY
*OBJECTIVE
STRAINENERGY
*END STEP

